LTspice 24.1.2 for Windows
Circuit: C:\Users\JWar1\Documents\College\Spring_2025\Principles_Of_Electronic_Packaging\Group_Work_1\08_LTspiceTemplate_SGW2_2024.net
Start Time: Tue Feb 18 18:14:09 2025
solver = Normal
Maximum thread count: 12
tnom = 27
temp = 27
method = trap
.OP point found by inspection.
Total elapsed time: 0.210 seconds.

Files loaded:
C:\Users\JWar1\Documents\College\Spring_2025\Principles_Of_Electronic_Packaging\Group_Work_1\08_LTspiceTemplate_SGW2_2024.net
C:\Users\JWar1\Documents\College\Spring_2025\Principles_Of_Electronic_Packaging\Group_Work_1\Lecture6_2025.cir

